  Page 1                                             1/5/2015 3:28:26 PM
  **********************************************************************
  *                             E P A N E T                            *
  *                     Hydraulic and Water Quality                    *
  *                     Analysis for Pipe Networks                     *
  *                           Version 2.0                              *
  **********************************************************************
  
  Input File: DVR Command_2024 (200)_Steady_State_With Check_Valves_At_Tanls.net
  
  Scenario: Base 
  Date: 6/2/2014 4:57:00 PM 
  
  Link - Node Table:
  ----------------------------------------------------------------------
  Link           Start          End                Length  Diameter
  ID             Node           Node                    m        mm
  ----------------------------------------------------------------------
  DVRTMP23       DVRJ-7         DMA5400_RajivnagarIStageNewOHT14.2250807730333       300
  DVRTMP4        DVRJ-3         DVRJ-7         686.523162728496       575
  84             21             34                     10       500
  79             19             Veeranageeri           10       300
  77             17             NR_mohalla2          1000       250
  75             15             NR_Mohalla1            10       350
  73             13             Rajiv_nagar_II         10       300
  55             3              Tippu_Park             10       250
  10             Veeranageeri   10                     10       300
  8              NR_mohalla2    7                      10       250
  7              NR_Mohalla1    8                      10       350
  1              Rajiv_nagar_II 4                    1000       300
  2              Tippu_Park     2                      10       150
  DVRTMP18       DVRJ-11        DVRJ-12        122.003156956608       373
  DVRTMP17       DVRJ-10        DVRJ-11        1209.02815545849       474
  DVRTMP14       DVRJ-8         DVRJ-9         728.089282727841       474
  DVRTMP3        34             47             14.7513166684416       500
  DVRTMP19       DVRJ-12        DMA4150_VeeranagereExOHT496.74086029739       300
  DVRTMP22       DVRJ-13        DMA4950_NRMohallaNewOHT192.002838512832       350
  DVRTMP21       DVRJ-13        DMA4849_NRMohallaExOHT177.747966106501       250
  DVRTMP20       5              DVRJ-13        1302.74491567486       424
  DVRTMP15       DVRJ-9         DVRJ-10        396.843852863401       474
  DVRTMP16       DVRJ-9         DMA5200_UdayagiriNewOHT538.54854369901       250
  4              1              DVRJ-8                618       575
  62             301-B          52                   #N/A      #N/A Pump
  61             301-B          52                   #N/A      #N/A Pump
  60             301-B          52                   #N/A      #N/A Pump
  80             52             21                   #N/A       500 Valve
  78             DMA4150_VeeranagereExOHT19                   #N/A       300 Valve
  76             DMA4849_NRMohallaExOHT17                   #N/A       250 Valve
  74             DMA4950_NRMohallaNewOHT15                   #N/A       350 Valve
  72             DMA5400_RajivnagarIStageNewOHT13                   #N/A       300 Valve
  40             DMA5200_UdayagiriNewOHT3                    #N/A       250 Valve
  6              47             DVRJ-3               #N/A       600 Valve
  3              DVRJ-7         1                    #N/A       575 Valve
  5              DVRJ-10        5                    #N/A       424 Valve


  Page 2                                                 Scenario: Base 
  
  Energy Usage:
  ----------------------------------------------------------------------
                    Usage   Avg.     Kw-hr      Avg.      Peak      Cost
  Pump             Factor Effic.     /m3        Kw        Kw      /day
  ----------------------------------------------------------------------
  62               100.00  75.00      0.13     49.18     49.18      0.00
  61                 0.00   0.00      0.00      0.00      0.00      0.00
  60               100.00  75.00      0.13     49.18     49.18      0.00
  ----------------------------------------------------------------------
                                                Demand Charge:      0.00
                                                Total Cost:         0.00
  
  Node Results at 0:00 Hrs:
  ----------------------------------------------------------------------
  Node                Demand      Head  Pressure   Quality
  ID                     LPS         m         m          
  ----------------------------------------------------------------------
  21                    0.00    803.18     20.14      0.00
  19                    0.00    763.23     14.07      0.00
  17                    0.00    752.72     10.68      0.00
  15                    0.00    759.23     17.34      0.00
  13                    0.00    785.16     28.15      0.00
  3                     0.00    758.43     17.27      0.00
  52                    0.00    803.18     20.14      0.00
  10                    5.63    763.23     14.07      0.00
  8                    11.39    759.22     17.33      0.00
  7                     2.88    752.45     10.41      0.00
  4                    15.97    784.92     27.91      0.00
  2                     7.50    758.38     17.23      0.00
  DMA4150_VeeranagereExOHT       0.00    801.53     52.29      0.00
  DMA4849_NRMohallaExOHT       0.00    759.33     17.27      0.00
  DMA4950_NRMohallaNewOHT       0.00    759.23     17.34      0.00
  DMA5200_UdayagiriNewOHT       0.00    800.39     59.15      0.00
  DVRJ-11               0.00    801.67     53.56      0.00
  DVRJ-8                0.00    802.44     47.34      0.00
  DMA5400_RajivnagarIStageNewOHT       0.00    802.60     45.56      0.00
  DVRJ-3                0.00    803.14     45.55      0.00
  DVRJ-12               0.00    801.66     53.32      0.00
  DVRJ-13               0.00    759.36     22.45      0.00
  DVRJ-10               0.00    801.70     60.79      0.00
  DVRJ-7                0.00    802.64     45.64      0.00
  DVRJ-9                0.00    801.84     63.40      0.00
  301-B              -216.82    768.41      9.72      0.00
  47                    0.00    803.14     45.55      0.00
  1                     0.00    802.64    801.03      0.00
  5                     0.00    759.84    758.32      0.00
  34                   45.59    803.16     20.12      0.00 Tank
  Veeranageeri         11.93    763.23     14.07      0.00 Tank
  NR_mohalla2           5.71    752.45     10.41      0.00 Tank
  NR_Mohalla1          33.02    759.22     17.34      0.00 Tank
  Rajiv_nagar_II       45.90    785.13     11.76      0.00 Tank


  Page 3                                                 Scenario: Base 
  Node Results at 0:00 Hrs: (continued)
  ----------------------------------------------------------------------
  Node                Demand      Head  Pressure   Quality
  ID                     LPS         m         m          
  ----------------------------------------------------------------------
  Tippu_Park           31.32    758.40     17.25      0.00 Tank
  
  Link Results at 0:00 Hrs:
  ----------------------------------------------------------------------
  Link                  Flow  VelocityUnit Headloss    Status
  ID                     LPS       m/s      m/km
  ----------------------------------------------------------------------
  DVRTMP23             61.87      0.88      2.64      Open
  DVRTMP4             171.24      0.66      0.73      Open
  84                  216.82      1.10      2.24      Open
  79                   17.55      0.25      0.26      Open
  77                    8.59      0.17      0.27      Open
  75                   44.41      0.46      0.68      Open
  73                   61.87      0.88      2.64      Open
  55                   38.82      0.79      2.71      Open
  10                    5.63      0.08      0.03      Open
  8                     2.88      0.06      0.02      Open
  7                    11.39      0.12      0.05      Open
  1                    15.97      0.23      0.21      Open
  2                     7.50      0.42      1.56      Open
  DVRTMP18             17.55      0.16      0.09      Open
  DVRTMP17             17.55      0.10      0.03      Open
  DVRTMP14            109.37      0.62      0.82      Open
  DVRTMP3             171.24      0.87      1.44      Open
  DVRTMP19             17.55      0.25      0.26      Open
  DVRTMP22             44.41      0.46      0.67      Open
  DVRTMP21              8.59      0.17      0.17      Open
  DVRTMP20             53.00      0.38      0.37      Open
  DVRTMP15             70.55      0.40      0.36      Open
  DVRTMP16             38.82      0.79      2.71      Open
  4                   109.37      0.42      0.32      Open
  62                  108.41      0.00    -34.78      Open Pump
  61                    0.00      0.00      0.00    Closed Pump
  60                  108.41      0.00    -34.78      Open Pump
  80                  216.82      1.10      0.00      Open Valve
  78                   17.55      0.25     38.30    Active Valve
  76                    8.59      0.17      6.61    Active Valve
  74                   44.41      0.46      0.00      Open Valve
  72                   61.87      0.88     17.44    Active Valve
  40                   38.82      0.79     41.96    Active Valve
  6                   171.24      0.61      0.00      Open Valve
  3                   109.37      0.42      0.00      Open Valve
  5                    53.00      0.38     41.87    Active Valve
  


  Page 4                                                 Scenario: Base 
  Node Results at 1:00 Hrs:
  ----------------------------------------------------------------------
  Node                Demand      Head  Pressure   Quality
  ID                     LPS         m         m          
  ----------------------------------------------------------------------
  21                    0.00    804.18     21.13      0.00
  19                    0.00    763.75     14.59      0.00
  17                    0.00    753.21     11.17      0.00
  15                    0.00    759.95     18.06      0.00
  13                    0.00    785.88     28.88      0.00
  3                     0.00    759.11     17.95      0.00
  52                    0.00    804.18     21.13      0.00
  10                    5.63    763.74     14.59      0.00
  8                    11.39    759.94     18.05      0.00
  7                     2.88    752.94     10.90      0.00
  4                    15.97    785.64     28.64      0.00
  2                     7.50    759.07     17.91      0.00
  DMA4150_VeeranagereExOHT       0.00    802.52     53.29      0.00
  DMA4849_NRMohallaExOHT       0.00    760.05     17.99      0.00
  DMA4950_NRMohallaNewOHT       0.00    759.95     18.06      0.00
  DMA5200_UdayagiriNewOHT       0.00    801.38     60.14      0.00
  DVRJ-11               0.00    802.66     54.55      0.00
  DVRJ-8                0.00    803.43     48.34      0.00
  DMA5400_RajivnagarIStageNewOHT       0.00    803.59     46.55      0.00
  DVRJ-3                0.00    804.13     46.54      0.00
  DVRJ-12               0.00    802.65     54.31      0.00
  DVRJ-13               0.00    760.08     23.17      0.00
  DVRJ-10               0.00    802.69     61.79      0.00
  DVRJ-7                0.00    803.63     46.64      0.00
  DVRJ-9                0.00    802.84     64.39      0.00
  301-B              -216.82    769.40     10.71      0.00
  47                    0.00    804.13     46.54      0.00
  1                     0.00    803.63    802.02      0.00
  5                     0.00    760.56    759.03      0.00
  34                   45.58    804.15     21.11      0.00 Tank
  Veeranageeri         11.93    763.75     14.59      0.00 Tank
  NR_mohalla2           5.71    752.94     10.90      0.00 Tank
  NR_Mohalla1          33.02    759.94     18.05      0.00 Tank
  Rajiv_nagar_II       45.90    785.86     12.48      0.00 Tank
  Tippu_Park           31.32    759.08     17.93      0.00 Tank
  
  Link Results at 1:00 Hrs:
  ----------------------------------------------------------------------
  Link                  Flow  VelocityUnit Headloss    Status
  ID                     LPS       m/s      m/km
  ----------------------------------------------------------------------
  DVRTMP23             61.87      0.88      2.64      Open
  DVRTMP4             171.24      0.66      0.73      Open
  84                  216.82      1.10      2.24      Open
  79                   17.55      0.25      0.25      Open
  77                    8.59      0.17      0.27      Open
  75                   44.41      0.46      0.68      Open


  Page 5                                                 Scenario: Base 
  Link Results at 1:00 Hrs: (continued)
  ----------------------------------------------------------------------
  Link                  Flow  VelocityUnit Headloss    Status
  ID                     LPS       m/s      m/km
  ----------------------------------------------------------------------
  73                   61.87      0.88      2.64      Open
  55                   38.82      0.79      2.71      Open
  10                    5.63      0.08      0.03      Open
  8                     2.88      0.06      0.02      Open
  7                    11.39      0.12      0.05      Open
  1                    15.97      0.23      0.21      Open
  2                     7.50      0.42      1.56      Open
  DVRTMP18             17.55      0.16      0.09      Open
  DVRTMP17             17.55      0.10      0.03      Open
  DVRTMP14            109.37      0.62      0.82      Open
  DVRTMP3             171.24      0.87      1.44      Open
  DVRTMP19             17.55      0.25      0.26      Open
  DVRTMP22             44.41      0.46      0.67      Open
  DVRTMP21              8.59      0.17      0.17      Open
  DVRTMP20             53.00      0.38      0.37      Open
  DVRTMP15             70.55      0.40      0.36      Open
  DVRTMP16             38.82      0.79      2.71      Open
  4                   109.37      0.42      0.32      Open
  62                  108.41      0.00    -34.78      Open Pump
  61                    0.00      0.00      0.00    Closed Pump
  60                  108.41      0.00    -34.78      Open Pump
  80                  216.82      1.10      0.00      Open Valve
  78                   17.55      0.25     38.77    Active Valve
  76                    8.59      0.17      6.84    Active Valve
  74                   44.41      0.46      0.00      Open Valve
  72                   61.87      0.88     17.71    Active Valve
  40                   38.82      0.79     42.27    Active Valve
  6                   171.24      0.61      0.00      Open Valve
  3                   109.37      0.42      0.00      Open Valve
  5                    53.00      0.38     42.14    Active Valve
  
  Node Results at 2:00 Hrs:
  ----------------------------------------------------------------------
  Node                Demand      Head  Pressure   Quality
  ID                     LPS         m         m          
  ----------------------------------------------------------------------
  21                    0.00    805.17     22.13      0.00
  19                    0.00    764.26     15.10      0.00
  17                    0.00    753.70     11.66      0.00
  15                    0.00    760.67     18.78      0.00
  13                    0.00    786.61     29.60      0.00
  3                     0.00    759.79     18.64      0.00
  52                    0.00    805.17     22.13      0.00
  10                    5.63    764.26     15.10      0.00
  8                    11.39    760.66     18.77      0.00
  7                     2.88    753.43     11.39      0.00
  4                    15.97    786.37     29.36      0.00


  Page 6                                                 Scenario: Base 
  Node Results at 2:00 Hrs: (continued)
  ----------------------------------------------------------------------
  Node                Demand      Head  Pressure   Quality
  ID                     LPS         m         m          
  ----------------------------------------------------------------------
  2                     7.50    759.75     18.59      0.00
  DMA4150_VeeranagereExOHT       0.00    803.52     54.28      0.00
  DMA4849_NRMohallaExOHT       0.00    760.77     18.71      0.00
  DMA4950_NRMohallaNewOHT       0.00    760.67     18.78      0.00
  DMA5200_UdayagiriNewOHT       0.00    802.37     61.13      0.00
  DVRJ-11               0.00    803.65     55.54      0.00
  DVRJ-8                0.00    804.43     49.33      0.00
  DMA5400_RajivnagarIStageNewOHT       0.00    804.59     47.54      0.00
  DVRJ-3                0.00    805.13     47.53      0.00
  DVRJ-12               0.00    803.64     55.30      0.00
  DVRJ-13               0.00    760.80     23.89      0.00
  DVRJ-10               0.00    803.69     62.78      0.00
  DVRJ-7                0.00    804.62     47.63      0.00
  DVRJ-9                0.00    803.83     65.39      0.00
  301-B              -216.82    770.39     11.70      0.00
  47                    0.00    805.13     47.53      0.00
  1                     0.00    804.62    803.01      0.00
  5                     0.00    761.27    759.75      0.00
  34                   45.58    805.15     22.10      0.00 Tank
  Veeranageeri         11.93    764.26     15.10      0.00 Tank
  NR_mohalla2           5.71    753.43     11.39      0.00 Tank
  NR_Mohalla1          33.02    760.66     18.77      0.00 Tank
  Rajiv_nagar_II       45.90    786.59     13.21      0.00 Tank
  Tippu_Park           31.32    759.77     18.61      0.00 Tank
  
  Link Results at 2:00 Hrs:
  ----------------------------------------------------------------------
  Link                  Flow  VelocityUnit Headloss    Status
  ID                     LPS       m/s      m/km
  ----------------------------------------------------------------------
  DVRTMP23             61.87      0.88      2.64      Open
  DVRTMP4             171.24      0.66      0.73      Open
  84                  216.82      1.10      2.24      Open
  79                   17.55      0.25      0.25      Open
  77                    8.59      0.17      0.27      Open
  75                   44.41      0.46      0.67      Open
  73                   61.87      0.88      2.64      Open
  55                   38.82      0.79      2.70      Open
  10                    5.63      0.08      0.04      Open
  8                     2.88      0.06      0.02      Open
  7                    11.39      0.12      0.06      Open
  1                    15.97      0.23      0.21      Open
  2                     7.50      0.42      1.56      Open
  DVRTMP18             17.55      0.16      0.09      Open
  DVRTMP17             17.55      0.10      0.03      Open
  DVRTMP14            109.37      0.62      0.82      Open
  DVRTMP3             171.24      0.87      1.44      Open


  Page 7                                                 Scenario: Base 
  Link Results at 2:00 Hrs: (continued)
  ----------------------------------------------------------------------
  Link                  Flow  VelocityUnit Headloss    Status
  ID                     LPS       m/s      m/km
  ----------------------------------------------------------------------
  DVRTMP19             17.55      0.25      0.26      Open
  DVRTMP22             44.41      0.46      0.67      Open
  DVRTMP21              8.59      0.17      0.17      Open
  DVRTMP20             53.00      0.38      0.37      Open
  DVRTMP15             70.55      0.40      0.36      Open
  DVRTMP16             38.82      0.79      2.71      Open
  4                   109.37      0.42      0.32      Open
  62                  108.41      0.00    -34.78      Open Pump
  61                    0.00      0.00      0.00    Closed Pump
  60                  108.41      0.00    -34.78      Open Pump
  80                  216.82      1.10      0.00      Open Valve
  78                   17.55      0.25     39.25    Active Valve
  76                    8.59      0.17      7.06    Active Valve
  74                   44.41      0.46      0.00      Open Valve
  72                   61.87      0.88     17.97    Active Valve
  40                   38.82      0.79     42.58    Active Valve
  6                   171.24      0.61      0.00      Open Valve
  3                   109.37      0.42      0.00      Open Valve
  5                    53.00      0.38     42.41    Active Valve
  
