  Page 1                                    Fri Nov  7 16:52:18 2014

  ******************************************************************
  *                           E P A N E T                          *
  *                   Hydraulic and Water Quality                  *
  *                   Analysis for Pipe Networks                   *
  *                         Version 2.00.12                        *
  ******************************************************************
  
  Analysis begun Fri Nov  7 16:52:18 2014

  WARNING: FCV 78 open but cannot deliver flow at 0:00:00 hrs.
  WARNING: FCV 72 open but cannot deliver flow at 0:00:00 hrs.
  WARNING: FCV 40 open but cannot deliver flow at 0:00:00 hrs.
  WARNING: FCV 5 open but cannot deliver flow at 0:00:00 hrs.
  
  WARNING: FCV 78 open but cannot deliver flow at 0:00:00 hrs.
  WARNING: FCV 72 open but cannot deliver flow at 0:00:00 hrs.
  WARNING: FCV 40 open but cannot deliver flow at 0:00:00 hrs.
  WARNING: FCV 5 open but cannot deliver flow at 0:00:00 hrs.
  
  WARNING: FCV 78 open but cannot deliver flow at 0:00:00 hrs.
  WARNING: FCV 72 open but cannot deliver flow at 0:00:00 hrs.
  WARNING: FCV 40 open but cannot deliver flow at 0:00:00 hrs.
  WARNING: FCV 5 open but cannot deliver flow at 0:00:00 hrs.
  
  WARNING: FCV 78 open but cannot deliver flow at 0:00:00 hrs.
  WARNING: FCV 72 open but cannot deliver flow at 0:00:00 hrs.
  WARNING: FCV 40 open but cannot deliver flow at 0:00:00 hrs.
  WARNING: FCV 5 open but cannot deliver flow at 0:00:00 hrs.
  
  WARNING: FCV 78 open but cannot deliver flow at 0:00:00 hrs.
  WARNING: FCV 72 open but cannot deliver flow at 0:00:00 hrs.
  WARNING: FCV 40 open but cannot deliver flow at 0:00:00 hrs.
  WARNING: FCV 5 open but cannot deliver flow at 0:00:00 hrs.
  
  Analysis ended Fri Nov  7 16:52:18 2014
